packages/grid_helpers_pkg/tests/files/basic_node_breaker.xiidm
<?xml version="1.0" encoding="UTF-8"?>
<iidm:network xmlns:iidm="http://www.powsybl.org/schema/iidm/1_13" xmlns:bbsp="http://www.itesla_project.eu/schema/iidm/ext/busbarsectionposition/1_0" xmlns:cp="http://www.powsybl.org/schema/iidm/ext/connectable_position/1_1" id="Default" caseDate="2025-05-16T15:23:18.106Z" forecastDistance="0" sourceFormat="" minimumValidationLevel="STEADY_STATE_HYPOTHESIS">
    <iidm:substation id="S1" name="Station1" country="BE">
        <iidm:voltageLevel id="VL1" name="VLevel1" nominalV="225.0" topologyKind="NODE_BREAKER">
            <iidm:nodeBreakerTopology>
                <iidm:busbarSection id="BBS1_1" name="bus1" node="0"/>
                <iidm:busbarSection id="BBS1_2" name="bus2" node="1"/>
                <iidm:switch id="L11_BREAKER" kind="BREAKER" retained="true" open="false" node1="2" node2="3"/>
                <iidm:switch id="L11_DISCONNECTOR_3_0" kind="DISCONNECTOR" retained="false" open="false" node1="3" node2="0"/>
                <iidm:switch id="L11_DISCONNECTOR_3_1" kind="DISCONNECTOR" retained="false" open="true" node1="3" node2="1"/>
                <iidm:switch id="L21_BREAKER" kind="BREAKER" retained="true" open="false" node1="4" node2="5"/>
                <iidm:switch id="L21_DISCONNECTOR_5_0" kind="DISCONNECTOR" retained="false" open="true" node1="5" node2="0"/>
                <iidm:switch id="L21_DISCONNECTOR_5_1" kind="DISCONNECTOR" retained="false" open="false" node1="5" node2="1"/>
                <iidm:switch id="L31_BREAKER" kind="BREAKER" retained="true" open="false" node1="6" node2="7"/>
                <iidm:switch id="L31_DISCONNECTOR_7_0" kind="DISCONNECTOR" retained="false" open="true" node1="7" node2="0"/>
                <iidm:switch id="L31_DISCONNECTOR_7_1" kind="DISCONNECTOR" retained="false" open="false" node1="7" node2="1"/>
                <iidm:switch id="L41_BREAKER" kind="BREAKER" retained="true" open="false" node1="8" node2="9"/>
                <iidm:switch id="L41_DISCONNECTOR_9_0" kind="DISCONNECTOR" retained="false" open="true" node1="9" node2="0"/>
                <iidm:switch id="L41_DISCONNECTOR_9_1" kind="DISCONNECTOR" retained="false" open="false" node1="9" node2="1"/>
                <iidm:switch id="L51_BREAKER" kind="BREAKER" retained="true" open="false" node1="10" node2="11"/>
                <iidm:switch id="L51_DISCONNECTOR_11_0" kind="DISCONNECTOR" retained="false" open="true" node1="11" node2="0"/>
                <iidm:switch id="L51_DISCONNECTOR_11_1" kind="DISCONNECTOR" retained="false" open="false" node1="11" node2="1"/>
                <iidm:switch id="VL1_BREAKER" kind="BREAKER" retained="true" open="false" node1="12" node2="13"/>
                <iidm:switch id="VL1_DISCONNECTOR_12_0" kind="DISCONNECTOR" retained="false" open="false" node1="12" node2="0"/>
                <iidm:switch id="VL1_DISCONNECTOR_13_1" kind="DISCONNECTOR" retained="false" open="false" node1="13" node2="1"/>
                <iidm:switch id="generator1_BREAKER" kind="BREAKER" retained="true" open="false" node1="14" node2="15"/>
                <iidm:switch id="generator1_DISCONNECTOR_15_0" kind="DISCONNECTOR" retained="false" open="false" node1="15" node2="0"/>
                <iidm:switch id="generator1_DISCONNECTOR_15_1" kind="DISCONNECTOR" retained="false" open="true" node1="15" node2="1"/>
                <iidm:switch id="generator2_BREAKER" kind="BREAKER" retained="true" open="false" node1="16" node2="17"/>
                <iidm:switch id="generator2_DISCONNECTOR_17_0" kind="DISCONNECTOR" retained="false" open="true" node1="17" node2="0"/>
                <iidm:switch id="generator2_DISCONNECTOR_17_1" kind="DISCONNECTOR" retained="false" open="false" node1="17" node2="1"/>
            </iidm:nodeBreakerTopology>
            <iidm:generator id="generator1" energySource="OTHER" minP="0.0" maxP="1000.0" voltageRegulatorOn="true" targetP="50.0" targetV="225.0" targetQ="10.0" node="14">
                <iidm:minMaxReactiveLimits minQ="-1.7976931348623157E308" maxQ="1.7976931348623157E308"/>
            </iidm:generator>
            <iidm:generator id="generator2" energySource="OTHER" minP="0.0" maxP="1000.0" voltageRegulatorOn="true" targetP="50.0" targetV="225.0" targetQ="10.0" node="16">
                <iidm:minMaxReactiveLimits minQ="-1.7976931348623157E308" maxQ="1.7976931348623157E308"/>
            </iidm:generator>
        </iidm:voltageLevel>
    </iidm:substation>
    <iidm:substation id="S2" name="Station2" country="BE">
        <iidm:voltageLevel id="VL2" name="VLevel2" nominalV="225.0" topologyKind="NODE_BREAKER">
            <iidm:nodeBreakerTopology>
                <iidm:busbarSection id="BBS2_1" name="bus1" node="0"/>
                <iidm:busbarSection id="BBS2_2" name="bus2" node="1"/>
                <iidm:busbarSection id="BBS2_3" name="bus3" node="2"/>
                <iidm:switch id="L12_BREAKER" kind="BREAKER" retained="true" open="false" node1="3" node2="4"/>
                <iidm:switch id="L12_DISCONNECTOR_4_0" kind="DISCONNECTOR" retained="false" open="false" node1="4" node2="0"/>
                <iidm:switch id="L12_DISCONNECTOR_4_1" kind="DISCONNECTOR" retained="false" open="true" node1="4" node2="1"/>
                <iidm:switch id="L12_DISCONNECTOR_4_2" kind="DISCONNECTOR" retained="false" open="true" node1="4" node2="2"/>
                <iidm:switch id="L22_BREAKER" kind="BREAKER" retained="true" open="false" node1="5" node2="6"/>
                <iidm:switch id="L22_DISCONNECTOR_6_0" kind="DISCONNECTOR" retained="false" open="true" node1="6" node2="0"/>
                <iidm:switch id="L22_DISCONNECTOR_6_1" kind="DISCONNECTOR" retained="false" open="false" node1="6" node2="1"/>
                <iidm:switch id="L22_DISCONNECTOR_6_2" kind="DISCONNECTOR" retained="false" open="true" node1="6" node2="2"/>
                <iidm:switch id="L61_BREAKER" kind="BREAKER" retained="true" open="false" node1="7" node2="8"/>
                <iidm:switch id="L61_DISCONNECTOR_8_0" kind="DISCONNECTOR" retained="false" open="false" node1="8" node2="0"/>
                <iidm:switch id="L61_DISCONNECTOR_8_1" kind="DISCONNECTOR" retained="false" open="true" node1="8" node2="1"/>
                <iidm:switch id="L61_DISCONNECTOR_8_2" kind="DISCONNECTOR" retained="false" open="true" node1="8" node2="2"/>
                <iidm:switch id="L71_BREAKER" kind="BREAKER" retained="true" open="false" node1="9" node2="10"/>
                <iidm:switch id="L71_DISCONNECTOR_10_0" kind="DISCONNECTOR" retained="false" open="true" node1="10" node2="0"/>
                <iidm:switch id="L71_DISCONNECTOR_10_1" kind="DISCONNECTOR" retained="false" open="false" node1="10" node2="1"/>
                <iidm:switch id="L71_DISCONNECTOR_10_2" kind="DISCONNECTOR" retained="false" open="true" node1="10" node2="2"/>
                <iidm:switch id="L81_BREAKER" kind="BREAKER" retained="true" open="false" node1="11" node2="12"/>
                <iidm:switch id="L81_DISCONNECTOR_12_0" kind="DISCONNECTOR" retained="false" open="false" node1="12" node2="0"/>
                <iidm:switch id="L81_DISCONNECTOR_12_1" kind="DISCONNECTOR" retained="false" open="true" node1="12" node2="1"/>
                <iidm:switch id="L81_DISCONNECTOR_12_2" kind="DISCONNECTOR" retained="false" open="true" node1="12" node2="2"/>
                <iidm:switch id="VL2_BREAKER" kind="BREAKER" retained="true" open="false" node1="13" node2="14"/>
                <iidm:switch id="VL2_DISCONNECTOR_13_0" kind="DISCONNECTOR" retained="false" open="false" node1="13" node2="0"/>
                <iidm:switch id="VL2_DISCONNECTOR_13_1" kind="DISCONNECTOR" retained="false" open="true" node1="13" node2="1"/>
                <iidm:switch id="VL2_DISCONNECTOR_14_1" kind="DISCONNECTOR" retained="false" open="false" node1="14" node2="1"/>
                <iidm:switch id="VL2_DISCONNECTOR_14_2" kind="DISCONNECTOR" retained="false" open="true" node1="14" node2="2"/>
                <iidm:switch id="VL2_BREAKER#0" kind="BREAKER" retained="true" open="false" node1="15" node2="16"/>
                <iidm:switch id="VL2_DISCONNECTOR_15_0" kind="DISCONNECTOR" retained="false" open="true" node1="15" node2="0"/>
                <iidm:switch id="VL2_DISCONNECTOR_15_1" kind="DISCONNECTOR" retained="false" open="false" node1="15" node2="1"/>
                <iidm:switch id="VL2_DISCONNECTOR_16_1" kind="DISCONNECTOR" retained="false" open="true" node1="16" node2="1"/>
                <iidm:switch id="VL2_DISCONNECTOR_16_2" kind="DISCONNECTOR" retained="false" open="false" node1="16" node2="2"/>
                <iidm:switch id="load1_BREAKER" kind="BREAKER" retained="true" open="false" node1="17" node2="18"/>
                <iidm:switch id="load1_DISCONNECTOR_18_0" kind="DISCONNECTOR" retained="false" open="false" node1="18" node2="0"/>
                <iidm:switch id="load1_DISCONNECTOR_18_1" kind="DISCONNECTOR" retained="false" open="true" node1="18" node2="1"/>
                <iidm:switch id="load1_DISCONNECTOR_18_2" kind="DISCONNECTOR" retained="false" open="true" node1="18" node2="2"/>
            </iidm:nodeBreakerTopology>
            <iidm:load id="load1" loadType="UNDEFINED" p0="100.0" q0="10.0" node="17"/>
        </iidm:voltageLevel>
    </iidm:substation>
    <iidm:substation id="S3" name="Station3" country="BE">
        <iidm:voltageLevel id="VL3" name="VLevel3" nominalV="225.0" topologyKind="NODE_BREAKER">
            <iidm:nodeBreakerTopology>
                <iidm:busbarSection id="BBS3_1" name="bus1" node="0"/>
                <iidm:busbarSection id="BBS3_2" name="bus2" node="1"/>
                <iidm:busbarSection id="BBS3_3" name="bus3" node="2"/>
                <iidm:busbarSection id="BBS3_4" name="bus4" node="3"/>
                <iidm:switch id="L32_BREAKER" kind="BREAKER" retained="true" open="false" node1="4" node2="5"/>
                <iidm:switch id="L32_DISCONNECTOR_5_0" kind="DISCONNECTOR" retained="false" open="false" node1="5" node2="0"/>
                <iidm:switch id="L32_DISCONNECTOR_5_1" kind="DISCONNECTOR" retained="false" open="true" node1="5" node2="1"/>
                <iidm:switch id="L62_BREAKER" kind="BREAKER" retained="true" open="false" node1="6" node2="7"/>
                <iidm:switch id="L62_DISCONNECTOR_7_0" kind="DISCONNECTOR" retained="false" open="false" node1="7" node2="0"/>
                <iidm:switch id="L62_DISCONNECTOR_7_1" kind="DISCONNECTOR" retained="false" open="true" node1="7" node2="1"/>
                <iidm:switch id="L72_BREAKER" kind="BREAKER" retained="true" open="false" node1="8" node2="9"/>
                <iidm:switch id="L72_DISCONNECTOR_9_0" kind="DISCONNECTOR" retained="false" open="true" node1="9" node2="0"/>
                <iidm:switch id="L72_DISCONNECTOR_9_1" kind="DISCONNECTOR" retained="false" open="false" node1="9" node2="1"/>
                <iidm:switch id="L91_BREAKER" kind="BREAKER" retained="true" open="false" node1="10" node2="11"/>
                <iidm:switch id="L91_DISCONNECTOR_11_0" kind="DISCONNECTOR" retained="false" open="false" node1="11" node2="0"/>
                <iidm:switch id="L91_DISCONNECTOR_11_1" kind="DISCONNECTOR" retained="false" open="true" node1="11" node2="1"/>
                <iidm:switch id="VL3_BREAKER" kind="BREAKER" retained="true" open="false" node1="12" node2="13"/>
                <iidm:switch id="VL3_DISCONNECTOR_12_0" kind="DISCONNECTOR" retained="false" open="false" node1="12" node2="0"/>
                <iidm:switch id="VL3_DISCONNECTOR_13_1" kind="DISCONNECTOR" retained="false" open="false" node1="13" node2="1"/>
                <iidm:switch id="VL3_BREAKER#0" kind="BREAKER" retained="true" open="false" node1="14" node2="15"/>
                <iidm:switch id="VL3_DISCONNECTOR_14_0" kind="DISCONNECTOR" retained="false" open="false" node1="14" node2="0"/>
                <iidm:switch id="VL3_DISCONNECTOR_14_1" kind="DISCONNECTOR" retained="false" open="true" node1="14" node2="1"/>
                <iidm:switch id="VL3_DISCONNECTOR_15_2" kind="DISCONNECTOR" retained="false" open="false" node1="15" node2="2"/>
                <iidm:switch id="VL3_DISCONNECTOR_15_3" kind="DISCONNECTOR" retained="false" open="true" node1="15" node2="3"/>
                <iidm:switch id="VL3_BREAKER#1" kind="BREAKER" retained="true" open="false" node1="16" node2="17"/>
                <iidm:switch id="VL3_DISCONNECTOR_16_0" kind="DISCONNECTOR" retained="false" open="true" node1="16" node2="0"/>
                <iidm:switch id="VL3_DISCONNECTOR_16_1" kind="DISCONNECTOR" retained="false" open="false" node1="16" node2="1"/>
                <iidm:switch id="VL3_DISCONNECTOR_17_2" kind="DISCONNECTOR" retained="false" open="true" node1="17" node2="2"/>
                <iidm:switch id="VL3_DISCONNECTOR_17_3" kind="DISCONNECTOR" retained="false" open="false" node1="17" node2="3"/>
                <iidm:switch id="load2_BREAKER" kind="BREAKER" retained="true" open="false" node1="18" node2="19"/>
                <iidm:switch id="load2_DISCONNECTOR_19_0" kind="DISCONNECTOR" retained="false" open="true" node1="19" node2="0"/>
                <iidm:switch id="load2_DISCONNECTOR_19_1" kind="DISCONNECTOR" retained="false" open="false" node1="19" node2="1"/>
            </iidm:nodeBreakerTopology>
            <iidm:load id="load2" loadType="UNDEFINED" p0="100.0" q0="10.0" node="18"/>
        </iidm:voltageLevel>
    </iidm:substation>
    <iidm:substation id="S4" name="Station4" country="BE">
        <iidm:voltageLevel id="VL4" name="VLevel4" nominalV="225.0" topologyKind="NODE_BREAKER">
            <iidm:nodeBreakerTopology>
                <iidm:busbarSection id="BBS4_1" name="bus1" node="0"/>
                <iidm:busbarSection id="BBS4_2" name="bus2" node="1"/>
                <iidm:busbarSection id="BBS4_3" name="bus3" node="2"/>
                <iidm:busbarSection id="BBS4_4" name="bus4" node="3"/>
                <iidm:switch id="L42_BREAKER" kind="BREAKER" retained="true" open="false" node1="4" node2="5"/>
                <iidm:switch id="L42_DISCONNECTOR_5_0" kind="DISCONNECTOR" retained="false" open="false" node1="5" node2="0"/>
                <iidm:switch id="L42_DISCONNECTOR_5_1" kind="DISCONNECTOR" retained="false" open="true" node1="5" node2="1"/>
                <iidm:switch id="L42_DISCONNECTOR_5_2" kind="DISCONNECTOR" retained="false" open="true" node1="5" node2="2"/>
                <iidm:switch id="L42_DISCONNECTOR_5_3" kind="DISCONNECTOR" retained="false" open="true" node1="5" node2="3"/>
                <iidm:switch id="L52_BREAKER" kind="BREAKER" retained="true" open="false" node1="6" node2="7"/>
                <iidm:switch id="L52_DISCONNECTOR_7_0" kind="DISCONNECTOR" retained="false" open="true" node1="7" node2="0"/>
                <iidm:switch id="L52_DISCONNECTOR_7_1" kind="DISCONNECTOR" retained="false" open="false" node1="7" node2="1"/>
                <iidm:switch id="L52_DISCONNECTOR_7_2" kind="DISCONNECTOR" retained="false" open="true" node1="7" node2="2"/>
                <iidm:switch id="L52_DISCONNECTOR_7_3" kind="DISCONNECTOR" retained="false" open="true" node1="7" node2="3"/>
                <iidm:switch id="L82_BREAKER" kind="BREAKER" retained="true" open="false" node1="8" node2="9"/>
                <iidm:switch id="L82_DISCONNECTOR_9_0" kind="DISCONNECTOR" retained="false" open="false" node1="9" node2="0"/>
                <iidm:switch id="L82_DISCONNECTOR_9_1" kind="DISCONNECTOR" retained="false" open="true" node1="9" node2="1"/>
                <iidm:switch id="L82_DISCONNECTOR_9_2" kind="DISCONNECTOR" retained="false" open="true" node1="9" node2="2"/>
                <iidm:switch id="L82_DISCONNECTOR_9_3" kind="DISCONNECTOR" retained="false" open="true" node1="9" node2="3"/>
                <iidm:switch id="VL4_BREAKER" kind="BREAKER" retained="true" open="false" node1="10" node2="11"/>
                <iidm:switch id="VL4_DISCONNECTOR_10_0" kind="DISCONNECTOR" retained="false" open="false" node1="10" node2="0"/>
                <iidm:switch id="VL4_DISCONNECTOR_10_1" kind="DISCONNECTOR" retained="false" open="true" node1="10" node2="1"/>
                <iidm:switch id="VL4_DISCONNECTOR_10_2" kind="DISCONNECTOR" retained="false" open="true" node1="10" node2="2"/>
                <iidm:switch id="VL4_DISCONNECTOR_11_1" kind="DISCONNECTOR" retained="false" open="false" node1="11" node2="1"/>
                <iidm:switch id="VL4_DISCONNECTOR_11_2" kind="DISCONNECTOR" retained="false" open="true" node1="11" node2="2"/>
                <iidm:switch id="VL4_DISCONNECTOR_11_3" kind="DISCONNECTOR" retained="false" open="true" node1="11" node2="3"/>
                <iidm:switch id="VL4_BREAKER#0" kind="BREAKER" retained="true" open="false" node1="12" node2="13"/>
                <iidm:switch id="VL4_DISCONNECTOR_12_0" kind="DISCONNECTOR" retained="false" open="false" node1="12" node2="0"/>
                <iidm:switch id="VL4_DISCONNECTOR_12_1" kind="DISCONNECTOR" retained="false" open="true" node1="12" node2="1"/>
                <iidm:switch id="VL4_DISCONNECTOR_12_2" kind="DISCONNECTOR" retained="false" open="true" node1="12" node2="2"/>
                <iidm:switch id="VL4_DISCONNECTOR_13_1" kind="DISCONNECTOR" retained="false" open="true" node1="13" node2="1"/>
                <iidm:switch id="VL4_DISCONNECTOR_13_2" kind="DISCONNECTOR" retained="false" open="false" node1="13" node2="2"/>
                <iidm:switch id="VL4_DISCONNECTOR_13_3" kind="DISCONNECTOR" retained="false" open="true" node1="13" node2="3"/>
                <iidm:switch id="VL4_BREAKER#1" kind="BREAKER" retained="true" open="false" node1="14" node2="15"/>
                <iidm:switch id="VL4_DISCONNECTOR_14_0" kind="DISCONNECTOR" retained="false" open="false" node1="14" node2="0"/>
                <iidm:switch id="VL4_DISCONNECTOR_14_1" kind="DISCONNECTOR" retained="false" open="true" node1="14" node2="1"/>
                <iidm:switch id="VL4_DISCONNECTOR_14_2" kind="DISCONNECTOR" retained="false" open="true" node1="14" node2="2"/>
                <iidm:switch id="VL4_DISCONNECTOR_15_1" kind="DISCONNECTOR" retained="false" open="true" node1="15" node2="1"/>
                <iidm:switch id="VL4_DISCONNECTOR_15_2" kind="DISCONNECTOR" retained="false" open="true" node1="15" node2="2"/>
                <iidm:switch id="VL4_DISCONNECTOR_15_3" kind="DISCONNECTOR" retained="false" open="false" node1="15" node2="3"/>
            </iidm:nodeBreakerTopology>
        </iidm:voltageLevel>
    </iidm:substation>
    <iidm:substation id="S5" name="Station5" country="BE">
        <iidm:voltageLevel id="VL5" name="VLevel5" nominalV="225.0" topologyKind="NODE_BREAKER">
            <iidm:nodeBreakerTopology>
                <iidm:busbarSection id="BBS5_1" name="bus1" node="0"/>
                <iidm:busbarSection id="BBS5_2" name="bus2" node="1"/>
                <iidm:busbarSection id="BBS5_3" name="bus3" node="2"/>
                <iidm:switch id="VL5_BREAKER" kind="BREAKER" retained="true" open="true" node1="3" node2="4"/>
                <iidm:switch id="VL5_DISCONNECTOR_3_0" kind="DISCONNECTOR" retained="false" open="false" node1="3" node2="0"/>
                <iidm:switch id="VL5_DISCONNECTOR_4_1" kind="DISCONNECTOR" retained="false" open="false" node1="4" node2="1"/>
                <iidm:switch id="VL5_BREAKER#0" kind="BREAKER" retained="true" open="false" node1="5" node2="6"/>
                <iidm:switch id="VL5_DISCONNECTOR_5_0" kind="DISCONNECTOR" retained="false" open="false" node1="5" node2="0"/>
                <iidm:switch id="VL5_DISCONNECTOR_6_2" kind="DISCONNECTOR" retained="false" open="false" node1="6" node2="2"/>
                <iidm:switch id="L92_BREAKER" kind="BREAKER" retained="true" open="false" node1="7" node2="8"/>
                <iidm:switch id="L92_DISCONNECTOR_8_0" kind="DISCONNECTOR" retained="false" open="false" node1="8" node2="0"/>
                <iidm:switch id="L92_DISCONNECTOR_8_1" kind="DISCONNECTOR" retained="false" open="true" node1="8" node2="1"/>
                <iidm:switch id="L92_DISCONNECTOR_8_2" kind="DISCONNECTOR" retained="false" open="true" node1="8" node2="2"/>
                <iidm:switch id="L101_BREAKER" kind="BREAKER" retained="true" open="false" node1="9" node2="10"/>
                <iidm:switch id="L101_DISCONNECTOR_10_0" kind="DISCONNECTOR" retained="false" open="false" node1="10" node2="0"/>
                <iidm:switch id="L101_DISCONNECTOR_10_1" kind="DISCONNECTOR" retained="false" open="true" node1="10" node2="1"/>
                <iidm:switch id="L101_DISCONNECTOR_10_2" kind="DISCONNECTOR" retained="false" open="true" node1="10" node2="2"/>
                <iidm:switch id="generator3_BREAKER" kind="BREAKER" retained="true" open="false" node1="11" node2="12"/>
                <iidm:switch id="generator3_DISCONNECTOR_12_0" kind="DISCONNECTOR" retained="false" open="true" node1="12" node2="0"/>
                <iidm:switch id="generator3_DISCONNECTOR_12_1" kind="DISCONNECTOR" retained="false" open="true" node1="12" node2="1"/>
                <iidm:switch id="generator3_DISCONNECTOR_12_2" kind="DISCONNECTOR" retained="false" open="false" node1="12" node2="2"/>
            </iidm:nodeBreakerTopology>
            <iidm:generator id="generator3" energySource="OTHER" minP="0.0" maxP="1000.0" voltageRegulatorOn="true" targetP="100.0" targetV="225.0" targetQ="10.0" node="11">
                <iidm:minMaxReactiveLimits minQ="-1.7976931348623157E308" maxQ="1.7976931348623157E308"/>
            </iidm:generator>
        </iidm:voltageLevel>
    </iidm:substation>
    <iidm:substation id="S6" name="Station6" country="BE">
        <iidm:voltageLevel id="VL6" name="VLevel6" nominalV="225.0" topologyKind="NODE_BREAKER">
            <iidm:nodeBreakerTopology>
                <iidm:busbarSection id="VL6_1_1" node="0"/>
                <iidm:busbarSection id="VL6_2_1" node="1"/>
                <iidm:busbarSection id="VL6_1_2" node="2"/>
                <iidm:busbarSection id="VL6_2_2" node="3"/>
                <iidm:busbarSection id="VL6_1_3" node="4"/>
                <iidm:busbarSection id="VL6_2_3" node="5"/>
                <iidm:switch id="VL6_DISCONNECTOR_0_6" kind="DISCONNECTOR" retained="false" open="false" node1="0" node2="6"/>
                <iidm:switch id="VL6_BREAKER_1_1" kind="BREAKER" retained="true" open="false" node1="6" node2="7"/>
                <iidm:switch id="VL6_DISCONNECTOR_7_2" kind="DISCONNECTOR" retained="false" open="false" node1="7" node2="2"/>
                <iidm:switch id="VL6_DISCONNECTOR_1_8" kind="DISCONNECTOR" retained="false" open="false" node1="1" node2="8"/>
                <iidm:switch id="VL6_BREAKER_2_1" kind="BREAKER" retained="true" open="false" node1="8" node2="9"/>
                <iidm:switch id="VL6_DISCONNECTOR_9_3" kind="DISCONNECTOR" retained="false" open="false" node1="9" node2="3"/>
                <iidm:switch id="VL6_DISCONNECTOR_2_4" kind="DISCONNECTOR" retained="false" open="false" node1="2" node2="4"/>
                <iidm:switch id="VL6_DISCONNECTOR_3_5" kind="DISCONNECTOR" retained="false" open="false" node1="3" node2="5"/>
                <iidm:switch id="VL6_BREAKER" kind="BREAKER" retained="true" open="false" node1="10" node2="11"/>
                <iidm:switch id="VL6_DISCONNECTOR_10_2" kind="DISCONNECTOR" retained="false" open="false" node1="10" node2="2"/>
                <iidm:switch id="VL6_DISCONNECTOR_11_3" kind="DISCONNECTOR" retained="false" open="false" node1="11" node2="3"/>
                <iidm:switch id="load6_BREAKER" kind="BREAKER" retained="true" open="false" node1="12" node2="13"/>
                <iidm:switch id="load6_DISCONNECTOR_13_0" kind="DISCONNECTOR" retained="false" open="false" node1="13" node2="0"/>
                <iidm:switch id="load6_DISCONNECTOR_13_1" kind="DISCONNECTOR" retained="false" open="true" node1="13" node2="1"/>
                <iidm:switch id="L102_BREAKER" kind="BREAKER" retained="true" open="false" node1="14" node2="15"/>
                <iidm:switch id="L102_DISCONNECTOR_15_0" kind="DISCONNECTOR" retained="false" open="false" node1="15" node2="0"/>
                <iidm:switch id="L102_DISCONNECTOR_15_1" kind="DISCONNECTOR" retained="false" open="true" node1="15" node2="1"/>
            </iidm:nodeBreakerTopology>
            <iidm:load id="load6" loadType="UNDEFINED" p0="100.0" q0="10.0" node="12"/>
        </iidm:voltageLevel>
    </iidm:substation>
    <iidm:line id="L1" r="0.2" x="10.0" g1="0.0" b1="0.0" g2="0.0" b2="0.0" voltageLevelId1="VL1" node1="2" voltageLevelId2="VL2" node2="3" selectedOperationalLimitsGroupId1="DEFAULT">
        <iidm:operationalLimitsGroup1 id="DEFAULT">
            <iidm:currentLimits permanentLimit="90.0"/>
        </iidm:operationalLimitsGroup1>
    </iidm:line>
    <iidm:line id="L2" r="0.2" x="10.0" g1="0.0" b1="0.0" g2="0.0" b2="0.0" voltageLevelId1="VL1" node1="4" voltageLevelId2="VL2" node2="5" selectedOperationalLimitsGroupId1="DEFAULT">
        <iidm:operationalLimitsGroup1 id="DEFAULT">
            <iidm:currentLimits permanentLimit="90.0"/>
        </iidm:operationalLimitsGroup1>
    </iidm:line>
    <iidm:line id="L3" r="1.0" x="20.0" g1="0.0" b1="0.0" g2="0.0" b2="0.0" voltageLevelId1="VL1" node1="6" voltageLevelId2="VL3" node2="4" selectedOperationalLimitsGroupId1="DEFAULT">
        <iidm:operationalLimitsGroup1 id="DEFAULT">
            <iidm:currentLimits permanentLimit="90.0"/>
        </iidm:operationalLimitsGroup1>
    </iidm:line>
    <iidm:line id="L4" r="0.2" x="10.0" g1="0.0" b1="0.0" g2="0.0" b2="0.0" voltageLevelId1="VL1" node1="8" voltageLevelId2="VL4" node2="4"/>
    <iidm:line id="L5" r="0.2" x="10.0" g1="0.0" b1="0.0" g2="0.0" b2="0.0" voltageLevelId1="VL1" node1="10" voltageLevelId2="VL4" node2="6"/>
    <iidm:line id="L6" r="0.2" x="10.0" g1="0.0" b1="0.0" g2="0.0" b2="0.0" voltageLevelId1="VL2" node1="7" voltageLevelId2="VL3" node2="6"/>
    <iidm:line id="L7" r="0.2" x="10.0" g1="0.0" b1="0.0" g2="0.0" b2="0.0" voltageLevelId1="VL2" node1="9" voltageLevelId2="VL3" node2="8"/>
    <iidm:line id="L8" r="0.2" x="10.0" g1="0.0" b1="0.0" g2="0.0" b2="0.0" voltageLevelId1="VL2" node1="11" voltageLevelId2="VL4" node2="8"/>
    <iidm:line id="L9" r="0.2" x="10.0" g1="0.0" b1="0.0" g2="0.0" b2="0.0" voltageLevelId1="VL3" node1="10" voltageLevelId2="VL5" node2="7"/>
    <iidm:line id="L10" r="0.2" x="10.0" g1="0.0" b1="0.0" g2="0.0" b2="0.0" voltageLevelId1="VL5" node1="9" voltageLevelId2="VL6" node2="14"/>
    <iidm:extension id="BBS2_1">
        <bbsp:busbarSectionPosition busbarIndex="1" sectionIndex="1"/>
    </iidm:extension>
    <iidm:extension id="BBS2_2">
        <bbsp:busbarSectionPosition busbarIndex="2" sectionIndex="1"/>
    </iidm:extension>
    <iidm:extension id="BBS2_3">
        <bbsp:busbarSectionPosition busbarIndex="3" sectionIndex="1"/>
    </iidm:extension>
    <iidm:extension id="load2">
        <cp:position>
            <cp:feeder name="load2" order="2" direction="BOTTOM"/>
        </cp:position>
    </iidm:extension>
    <iidm:extension id="load6">
        <cp:position>
            <cp:feeder name="load6" order="2" direction="BOTTOM"/>
        </cp:position>
    </iidm:extension>
    <iidm:extension id="BBS3_1">
        <bbsp:busbarSectionPosition busbarIndex="1" sectionIndex="1"/>
    </iidm:extension>
    <iidm:extension id="BBS3_2">
        <bbsp:busbarSectionPosition busbarIndex="2" sectionIndex="1"/>
    </iidm:extension>
    <iidm:extension id="BBS3_3">
        <bbsp:busbarSectionPosition busbarIndex="1" sectionIndex="2"/>
    </iidm:extension>
    <iidm:extension id="BBS3_4">
        <bbsp:busbarSectionPosition busbarIndex="2" sectionIndex="2"/>
    </iidm:extension>
    <iidm:extension id="VL6_2_1">
        <bbsp:busbarSectionPosition busbarIndex="2" sectionIndex="1"/>
    </iidm:extension>
    <iidm:extension id="VL6_2_3">
        <bbsp:busbarSectionPosition busbarIndex="2" sectionIndex="3"/>
    </iidm:extension>
    <iidm:extension id="VL6_2_2">
        <bbsp:busbarSectionPosition busbarIndex="2" sectionIndex="2"/>
    </iidm:extension>
    <iidm:extension id="BBS1_1">
        <bbsp:busbarSectionPosition busbarIndex="1" sectionIndex="1"/>
    </iidm:extension>
    <iidm:extension id="BBS1_2">
        <bbsp:busbarSectionPosition busbarIndex="2" sectionIndex="1"/>
    </iidm:extension>
    <iidm:extension id="VL6_1_2">
        <bbsp:busbarSectionPosition busbarIndex="1" sectionIndex="2"/>
    </iidm:extension>
    <iidm:extension id="VL6_1_1">
        <bbsp:busbarSectionPosition busbarIndex="1" sectionIndex="1"/>
    </iidm:extension>
    <iidm:extension id="VL6_1_3">
        <bbsp:busbarSectionPosition busbarIndex="1" sectionIndex="3"/>
    </iidm:extension>
    <iidm:extension id="L1">
        <cp:position>
            <cp:feeder1 name="L1" order="1" direction="TOP"/>
            <cp:feeder2 name="L1" order="1" direction="TOP"/>
        </cp:position>
    </iidm:extension>
    <iidm:extension id="L3">
        <cp:position>
            <cp:feeder2 name="L3" order="1" direction="TOP"/>
        </cp:position>
    </iidm:extension>
    <iidm:extension id="L4">
        <cp:position>
            <cp:feeder2 name="L4" order="1" direction="TOP"/>
        </cp:position>
    </iidm:extension>
    <iidm:extension id="L10">
        <cp:position>
            <cp:feeder2 name="L10" order="1" direction="TOP"/>
        </cp:position>
    </iidm:extension>
    <iidm:extension id="L9">
        <cp:position>
            <cp:feeder2 name="L9" order="1" direction="TOP"/>
        </cp:position>
    </iidm:extension>
    <iidm:extension id="BBS4_1">
        <bbsp:busbarSectionPosition busbarIndex="1" sectionIndex="1"/>
    </iidm:extension>
    <iidm:extension id="BBS4_2">
        <bbsp:busbarSectionPosition busbarIndex="2" sectionIndex="1"/>
    </iidm:extension>
    <iidm:extension id="BBS4_3">
        <bbsp:busbarSectionPosition busbarIndex="3" sectionIndex="1"/>
    </iidm:extension>
    <iidm:extension id="BBS4_4">
        <bbsp:busbarSectionPosition busbarIndex="4" sectionIndex="1"/>
    </iidm:extension>
    <iidm:extension id="BBS5_1">
        <bbsp:busbarSectionPosition busbarIndex="1" sectionIndex="1"/>
    </iidm:extension>
    <iidm:extension id="BBS5_2">
        <bbsp:busbarSectionPosition busbarIndex="2" sectionIndex="1"/>
    </iidm:extension>
    <iidm:extension id="BBS5_3">
        <bbsp:busbarSectionPosition busbarIndex="3" sectionIndex="1"/>
    </iidm:extension>
    <iidm:extension id="generator3">
        <cp:position>
            <cp:feeder name="generator3" order="2" direction="BOTTOM"/>
        </cp:position>
    </iidm:extension>
</iidm:network>
